Version 4
SHEET 1 880 680
WIRE 224 16 160 16
WIRE 224 32 224 16
WIRE 160 48 160 16
WIRE 224 144 224 112
WIRE 272 144 224 144
WIRE 272 256 272 208
WIRE 336 256 336 128
WIRE 336 256 272 256
FLAG 160 48 0
SYMBOL res 208 16 R0
SYMATTR InstName R1
SYMBOL cap 256 144 R0
SYMATTR InstName C1
SYMBOL diode 320 64 R0
SYMATTR InstName D1
